&nhyd_model
   config_start_time = '0000-01-01_00:00:00'
   config_init_case = 2
/

&dimensions
   config_nvertlevels = 26
/

&decomposition
   config_block_decomp_file_prefix = 'x1.40962.graph.info.part.' 
/
